  
       XFOIL         Version 6.99
  
 Calculated polar for: naca0012                                        
  
 1 1 Reynolds number fixed          Mach number fixed         
  
 xtrf =   1.000 (top)        1.000 (bottom)  
 Mach =   0.000     Re =     0.150 e 6     Ncrit =   9.000  9.000
  
   alpha    CL        CD       CDp       CM     Top_Xtr  Bot_Xtr  Top_Itr  Bot_Itr
  ------ -------- --------- --------- -------- -------- -------- -------- --------
 -10.000  -1.0025   0.03512   0.01734  -0.0174   1.0000   0.0601   1.0000  99.9285
  -9.750  -0.9860   0.03268   0.01552  -0.0163   1.0000   0.0620   1.0000 100.1366
  -9.500  -0.9664   0.03136   0.01469  -0.0154   1.0000   0.0646   1.0000 100.4023
  -9.250  -0.9475   0.03003   0.01354  -0.0142   1.0000   0.0675   1.0000 100.6976
  -9.000  -0.9288   0.02874   0.01219  -0.0127   1.0000   0.0701   1.0000 100.9652
  -8.750  -0.9074   0.02693   0.01116  -0.0121   1.0000   0.0736   1.0000 101.2862
  -8.500  -0.8869   0.02593   0.01042  -0.0110   1.0000   0.0778   1.0000 101.6651
  -8.250  -0.8662   0.02482   0.00941  -0.0097   1.0000   0.0819   1.0000 102.0386
  -8.000  -0.8453   0.02354   0.00877  -0.0088   1.0000   0.0870   1.0000 102.4601
  -7.750  -0.8247   0.02276   0.00805  -0.0075   1.0000   0.0929   1.0000 102.9573
  -7.500  -0.8048   0.02156   0.00743  -0.0064   1.0000   0.0994   1.0000 103.4630
  -7.250  -0.7847   0.02071   0.00679  -0.0050   1.0000   0.1075   1.0000 104.0867
  -7.000  -0.7656   0.01986   0.00631  -0.0036   1.0000   0.1168   1.0000 104.7695
  -6.750  -0.7469   0.01899   0.00582  -0.0020   1.0000   0.1278   1.0000 105.5580
  -6.500  -0.7282   0.01819   0.00535  -0.0005   1.0000   0.1414   1.0000 106.5068
  -6.250  -0.7095   0.01745   0.00493   0.0011   1.0000   0.1588   1.0000 107.6838
  -6.000  -0.6909   0.01672   0.00453   0.0027   1.0000   0.1805   1.0000 109.1157
  -5.750  -0.6726   0.01603   0.00421   0.0042   1.0000   0.2072   1.0000 110.8461
  -5.500  -0.6541   0.01539   0.00393   0.0058   1.0000   0.2387   1.0000 112.8509
  -5.250  -0.6352   0.01483   0.00372   0.0073   1.0000   0.2741   1.0000 115.0689
  -5.000  -0.6161   0.01432   0.00357   0.0087   1.0000   0.3108   1.0000 117.3443
  -4.750  -0.5964   0.01389   0.00347   0.0101   1.0000   0.3488   1.0000 119.6766
  -4.500  -0.5761   0.01354   0.00338   0.0115   1.0000   0.3869   1.0000 121.9989
  -4.250  -0.5557   0.01320   0.00335   0.0128   1.0000   0.4233   1.0000 124.2107
  -4.000  -0.5348   0.01291   0.00334   0.0141   1.0000   0.4596   1.0000 126.4011
  -3.750  -0.5136   0.01267   0.00335   0.0153   1.0000   0.4957   1.0000 128.5730
  -3.500  -0.4921   0.01246   0.00339   0.0164   1.0000   0.5314   1.0000 130.7159
  -3.250  -0.4702   0.01228   0.00345   0.0176   1.0000   0.5668   1.0000 132.8348
  -3.000  -0.4480   0.01214   0.00353   0.0186   1.0000   0.6020   1.0000 134.9385
  -2.750  -0.4257   0.01203   0.00365   0.0197   1.0000   0.6369   1.0000 137.0228
  -2.500  -0.4036   0.01196   0.00380   0.0208   1.0000   0.6713   1.0000 139.0733
  -2.250  -0.3818   0.01192   0.00398   0.0220   1.0000   0.7055   1.0000 141.1095
  -2.000  -0.3605   0.01194   0.00419   0.0233   1.0000   0.7394   1.0000 143.1291
  -1.750  -0.3392   0.01201   0.00445   0.0246   0.9998   0.7731   1.0260 145.1374
  -1.500  -0.2938   0.01217   0.00477   0.0214   0.9917   0.8086   1.9966 147.2528
  -1.250  -0.2501   0.01232   0.00503   0.0187   0.9821   0.8406   2.8515 149.1592
  -1.000  -0.2074   0.01248   0.00527   0.0164   0.9717   0.8685   3.6630 150.8310
  -0.750  -0.1618   0.01266   0.00548   0.0135   0.9621   0.8917   4.3574 152.2183
  -0.500  -0.1091   0.01282   0.00566   0.0093   0.9544   0.9100   4.8861 153.3246
  -0.250  -0.0570   0.01294   0.00578   0.0051   0.9448   0.9250   5.5108 154.2448
   0.000  -0.0000   0.01295   0.00579   0.0000   0.9374   0.9374   5.9866 155.0140
   0.250   0.0570   0.01294   0.00578  -0.0051   0.9250   0.9448   6.7551 155.4894
   0.500   0.1091   0.01282   0.00567  -0.0093   0.9100   0.9544   7.6749 156.1144
   0.750   0.1618   0.01266   0.00549  -0.0135   0.8917   0.9621   8.7815 156.6440
   1.000   0.2074   0.01248   0.00527  -0.0164   0.8685   0.9717  10.1694 157.3387
   1.250   0.2501   0.01232   0.00503  -0.0187   0.8406   0.9821  11.8405 158.1499
   1.500   0.2938   0.01217   0.00477  -0.0214   0.8086   0.9918  13.7469 159.0055
   1.750   0.3392   0.01201   0.00445  -0.0246   0.7731   0.9998  15.8621 159.9780
   2.000   0.3604   0.01194   0.00419  -0.0233   0.7394   1.0000  17.8697 160.0000
   2.250   0.3817   0.01192   0.00398  -0.0220   0.7055   1.0000  19.8890 160.0000
   2.500   0.4035   0.01195   0.00380  -0.0208   0.6714   1.0000  21.9249 160.0000
   2.750   0.4256   0.01203   0.00365  -0.0197   0.6370   1.0000  23.9760 160.0000
   3.000   0.4479   0.01214   0.00353  -0.0186   0.6021   1.0000  26.0566 160.0000
   3.250   0.4701   0.01228   0.00345  -0.0176   0.5669   1.0000  28.1619 160.0000
   3.500   0.4919   0.01245   0.00339  -0.0164   0.5315   1.0000  30.2828 160.0000
   3.750   0.5135   0.01266   0.00335  -0.0152   0.4957   1.0000  32.4257 160.0000
   4.000   0.5347   0.01291   0.00334  -0.0140   0.4597   1.0000  34.5944 160.0000
   4.250   0.5556   0.01320   0.00335  -0.0128   0.4234   1.0000  36.7858 160.0000
   4.500   0.5760   0.01354   0.00339  -0.0114   0.3869   1.0000  38.9981 160.0000
   4.750   0.5963   0.01389   0.00347  -0.0101   0.3489   1.0000  41.3193 160.0000
   5.000   0.6160   0.01432   0.00358  -0.0087   0.3109   1.0000  43.6517 160.0000
   5.250   0.6351   0.01483   0.00372  -0.0072   0.2741   1.0000  45.9283 160.0000
   5.500   0.6540   0.01539   0.00394  -0.0057   0.2388   1.0000  48.1453 160.0000
   5.750   0.6725   0.01603   0.00421  -0.0042   0.2072   1.0000  50.1530 160.0000
   6.000   0.6909   0.01672   0.00453  -0.0026   0.1805   1.0000  51.8823 160.0000
   6.250   0.7094   0.01745   0.00493  -0.0011   0.1588   1.0000  53.3145 160.0000
   6.500   0.7282   0.01819   0.00535   0.0005   0.1415   1.0000  54.4920 160.0000
   6.750   0.7468   0.01899   0.00582   0.0021   0.1278   1.0000  55.4412 160.0000
   7.000   0.7655   0.01985   0.00632   0.0036   0.1168   1.0000  56.2297 160.0000
   7.250   0.7847   0.02071   0.00679   0.0050   0.1075   1.0000  56.9129 160.0000
   7.500   0.8048   0.02156   0.00744   0.0064   0.0994   1.0000  57.5367 160.0000
   7.750   0.8247   0.02276   0.00805   0.0075   0.0929   1.0000  58.0426 160.0000
   8.000   0.8453   0.02354   0.00877   0.0088   0.0869   1.0000  58.5405 160.0000
   8.250   0.8662   0.02482   0.00941   0.0097   0.0819   1.0000  58.9618 160.0000
   8.500   0.8870   0.02593   0.01043   0.0110   0.0778   1.0000  59.3351 160.0000
   8.750   0.9075   0.02693   0.01117   0.0121   0.0736   1.0000  59.7142 160.0000
   9.000   0.9289   0.02874   0.01220   0.0127   0.0701   1.0000  60.0351 160.0000
   9.250   0.9476   0.03003   0.01355   0.0142   0.0675   1.0000  60.3028 160.0000
   9.500   0.9665   0.03136   0.01469   0.0154   0.0646   1.0000  60.5983 160.0000
   9.750   0.9861   0.03268   0.01553   0.0162   0.0620   1.0000  60.8639 160.0000
  10.000   1.0026   0.03512   0.01735   0.0174   0.0601   1.0000  61.0719 160.0000
  10.250   1.0141   0.03719   0.01949   0.0194   0.0586   1.0000  61.2366 160.0000
  10.500   1.0238   0.03947   0.02170   0.0214   0.0571   1.0000  61.4132 160.0000
  10.750   1.0339   0.04154   0.02358   0.0231   0.0555   1.0000  61.5996 160.0000
  11.000   1.0487   0.04314   0.02473   0.0241   0.0538   1.0000  61.7920 160.0000
  11.250   1.0605   0.04560   0.02635   0.0251   0.0525   1.0000  61.9434 160.0000
  11.500   1.0594   0.04951   0.02951   0.0271   0.0520   1.0000  62.0123 160.0000
  11.750   1.0496   0.05273   0.03265   0.0298   0.0517   1.0000  62.0418 160.0000
  12.000   1.0342   0.05610   0.03581   0.0327   0.0516   1.0000  62.0537 160.0000
  12.250   1.0143   0.05967   0.03909   0.0351   0.0517   1.0000  62.0521 160.0000
  12.500   0.9927   0.06384   0.04291   0.0360   0.0517   1.0000  62.0416 160.0000
  12.750   0.9702   0.06876   0.04741   0.0354   0.0519   1.0000  62.0230 160.0000
  13.250   0.5622   0.14327   0.10779   0.0003   0.1058   1.0000  57.0380 160.0000
  13.500   0.5208   0.14766   0.11432  -0.0050   0.1018   1.0000  57.3486 160.0000
  13.750   0.5193   0.15032   0.11713  -0.0057   0.0982   1.0000  57.6324 160.0000
  14.000   0.5366   0.15252   0.11857  -0.0046   0.0951   1.0000  57.8695 160.0000
  14.250   0.5717   0.15670   0.11866  -0.0012   0.0934   1.0000  58.0023 160.0000
  14.500   0.5388   0.15972   0.12494  -0.0058   0.0927   1.0000  58.0619 160.0000
  14.750   0.5112   0.16050   0.12962  -0.0092   0.0890   1.0000  58.3714 160.0000
  15.000   0.5108   0.16254   0.13258  -0.0100   0.0861   1.0000  58.6072 160.0000
  15.250   0.5165   0.16467   0.13510  -0.0102   0.0840   1.0000  58.7854 160.0000
  15.500   0.5443   0.16867   0.13644  -0.0083   0.0820   1.0000  58.9525 160.0000
  15.750   0.5419   0.17228   0.14019  -0.0094   0.0811   1.0000  59.0332 160.0000
  16.000   0.5128   0.17211   0.14564  -0.0135   0.0786   1.0000  59.2606 160.0000
